16

O 19.3973640000 8.2778510000 3.1488240000
O 19.4120450000 8.3058140000 5.6866680000
O 21.3938140000 9.3157660000 4.4051830000
O 19.4934920000 2.6917290000 5.4659630000
O 19.4050830000 2.5982240000 3.2032890000
H 21.9695240000 6.7123490000 3.5205180000
H 21.9552500000 6.6865620000 5.3051010000
H 21.8465650000 3.8160470000 4.9907780000
H 21.5707170000 3.9486340000 3.2157330000
H 19.9182760000 5.3822580000 5.2341050000
H 19.8066790000 5.4919470000 3.6119550000
C 21.1100920000 4.0127200000 4.2067440000
C 21.3269940000 6.6572140000 4.4076560000
C 19.9148060000 2.9978500000 4.3097920000
N 20.5395030000 5.3947110000 4.3814040000
P 20.3218500000 8.2593900000 4.4120470000
